Version 4.1
SHEET 1 952 680
WIRE 416 -352 -32 -352
WIRE -32 -288 -32 -352
WIRE 416 -240 416 -352
WIRE 496 -240 416 -240
WIRE 672 -240 576 -240
WIRE 880 -240 672 -240
WIRE -32 -144 -32 -208
WIRE 880 -144 880 -240
WIRE 416 -128 416 -240
WIRE 672 -128 672 -240
WIRE 416 -16 416 -64
WIRE 672 -16 672 -64
WIRE -32 16 -32 -64
WIRE 880 64 880 -64
WIRE -32 144 -32 96
WIRE -32 288 -32 224
FLAG -32 288 0
FLAG 880 64 0
FLAG 416 -16 0
FLAG 672 -16 0
SYMBOL voltage -32 0 R0
WINDOW 123 0 0 Left 0
WINDOW 39 0 0 Left 0
SYMATTR InstName V1
SYMATTR Value 5
SYMBOL bv -32 -160 R0
SYMATTR InstName B1
SYMATTR Value V=WHITE(10000*time)*.2
SYMBOL ind 480 -224 R270
WINDOW 0 32 56 VTop 2
WINDOW 3 5 56 VBottom 2
SYMATTR InstName L2
SYMATTR Value 100µ
SYMATTR SpiceLine Ipk=1
SYMBOL res 864 -160 R0
SYMATTR InstName R1
SYMATTR Value 100
SYMBOL cap 400 -128 R0
SYMATTR InstName C2
SYMATTR Value 2.2µ
SYMBOL cap 656 -128 R0
SYMATTR InstName C3
SYMATTR Value 2.2µ
SYMBOL voltage -32 -304 R0
WINDOW 123 0 0 Left 0
WINDOW 39 0 0 Left 0
SYMATTR InstName V2
SYMATTR Value SINE(0 0.1 100k)
SYMBOL voltage -32 128 R0
WINDOW 123 0 0 Left 0
WINDOW 39 0 0 Left 0
SYMATTR InstName V3
SYMATTR Value AC 1
TEXT -64 384 Left 2 ;.tran 0 10m 0 10u
TEXT -56 416 Left 2 !.ac dec 500 10 100meg
